Version 4
SHEET 1 880 680
WIRE 80 0 64 0
WIRE 576 16 288 16
WIRE -80 32 -320 32
WIRE 0 32 -80 32
WIRE 80 32 0 32
WIRE 576 80 576 16
WIRE -80 112 -80 96
WIRE 0 112 0 32
WIRE -320 144 -320 112
WIRE 576 176 576 160
WIRE 0 208 0 192
WIRE 64 208 64 0
WIRE 64 208 0 208
WIRE 0 224 0 208
WIRE 576 304 576 256
WIRE -272 368 -464 368
WIRE -128 368 -272 368
WIRE 0 384 0 304
WIRE 0 384 -64 384
WIRE -128 400 -160 400
WIRE -464 416 -464 368
WIRE -272 416 -272 368
WIRE -464 544 -464 496
WIRE -272 544 -272 496
WIRE -160 544 -160 400
FLAG -160 544 0
FLAG -272 544 0
FLAG -464 544 0
FLAG -320 144 0
FLAG 576 304 0
FLAG -80 192 0
SYMBOL AutoGenerated\\BSO080P03NS3_L0 192 16 M0
SYMATTR InstName U1
SYMBOL AutoGenerated\\irlhs6342pbf -96 384 M0
WINDOW 3 -30 47 Top 2
SYMATTR InstName U2
SYMBOL res -16 96 R0
SYMATTR InstName R1
SYMATTR Value 1k
SYMBOL res -16 208 R0
SYMATTR InstName R2
SYMATTR Value 1k
SYMBOL res -288 400 R0
SYMATTR InstName R3
SYMATTR Value 10k
SYMBOL voltage -464 400 R0
WINDOW 3 -348 106 Left 2
WINDOW 123 0 0 Left 0
WINDOW 39 0 0 Left 0
SYMATTR InstName V1
SYMATTR Value PULSE(0 3.3 0 0 0 1 2)
SYMBOL voltage 576 160 R0
WINDOW 123 0 0 Left 0
WINDOW 39 0 0 Left 0
SYMATTR InstName V3
SYMATTR Value 16
SYMBOL res 560 64 R0
SYMATTR InstName R4
SYMATTR Value 0.1
SYMBOL current -320 112 R180
WINDOW 123 0 0 Left 0
WINDOW 39 0 0 Left 0
SYMATTR InstName I1
SYMATTR Value 5A
SYMBOL zener -64 96 R180
WINDOW 0 24 64 Left 2
WINDOW 3 24 0 Left 2
SYMATTR InstName D1
SYMATTR Value PTZ24B
SYMBOL res -96 96 R0
SYMATTR InstName R5
SYMATTR Value 1
TEXT -814 568 Left 2 !.tran 10s
