Version 4
SHEET 1 912 680
WIRE -784 112 -944 112
WIRE -704 112 -784 112
WIRE -576 112 -624 112
WIRE -528 112 -576 112
WIRE -384 112 -448 112
WIRE -256 112 -304 112
WIRE -96 128 -112 128
WIRE 48 128 -16 128
WIRE 160 128 128 128
WIRE 208 128 160 128
WIRE 304 128 288 128
WIRE 416 128 304 128
WIRE -944 144 -944 112
WIRE -784 144 -784 112
WIRE -576 144 -576 112
WIRE -256 144 -256 112
WIRE -112 144 -112 128
WIRE 160 144 160 128
WIRE 304 144 304 128
WIRE 416 144 416 128
WIRE -256 240 -256 224
WIRE -112 240 -112 224
WIRE -48 240 -48 224
WIRE 160 240 160 208
WIRE 304 240 304 208
WIRE 416 240 416 224
WIRE -944 256 -944 224
WIRE -784 256 -784 208
WIRE -576 256 -576 208
WIRE -336 336 -400 336
WIRE -208 336 -256 336
WIRE -96 336 -128 336
WIRE 16 336 -96 336
WIRE 16 352 16 336
WIRE -400 384 -400 336
WIRE -400 480 -400 464
WIRE -96 480 -96 400
WIRE 16 480 16 432
FLAG 160 240 0
FLAG 304 240 0
FLAG 416 240 0
FLAG -112 240 0
FLAG -576 256 0
FLAG -784 256 0
FLAG -944 256 0
FLAG -256 240 0
FLAG -400 480 0
FLAG -96 480 0
FLAG 16 480 0
SYMBOL res 304 112 R90
WINDOW 0 0 56 VBottom 2
WINDOW 3 32 56 VTop 2
SYMATTR InstName R2
SYMATTR Value 51
SYMBOL cap 144 144 R0
SYMATTR InstName C1
SYMATTR Value 100µ
SYMATTR SpiceLine Rser=0
SYMBOL cap 288 144 R0
SYMATTR InstName C2
SYMATTR Value 22µ
SYMBOL voltage -112 128 R0
SYMATTR InstName V1
SYMATTR Value AC 1
SYMBOL res 400 128 R0
SYMATTR InstName R3
SYMATTR Value 500
SYMBOL res 144 112 R90
WINDOW 0 0 56 VBottom 2
WINDOW 3 32 56 VTop 2
SYMATTR InstName R1
SYMATTR Value 100
SYMBOL res 0 112 R90
WINDOW 0 0 56 VBottom 2
WINDOW 3 32 56 VTop 2
SYMATTR InstName R4
SYMATTR Value 1
SYMBOL voltage -256 128 R0
SYMATTR InstName V2
SYMATTR Value AC 1
SYMBOL res -288 96 R90
WINDOW 0 0 56 VBottom 2
WINDOW 3 32 56 VTop 2
SYMATTR InstName R5
SYMATTR Value 1
SYMBOL res -432 96 R90
WINDOW 0 0 56 VBottom 2
WINDOW 3 32 56 VTop 2
SYMATTR InstName R6
SYMATTR Value 100
SYMBOL cap -592 144 R0
SYMATTR InstName C3
SYMATTR Value 100µ
SYMBOL cap -800 144 R0
SYMATTR InstName C4
SYMATTR Value 22µ
SYMBOL res -960 128 R0
SYMATTR InstName R8
SYMATTR Value 500
SYMBOL ind -720 128 R270
WINDOW 0 32 56 VTop 2
WINDOW 3 5 56 VBottom 2
SYMATTR InstName L1
SYMATTR Value 390µ
SYMATTR SpiceLine Rser=35
SYMBOL voltage -400 368 R0
SYMATTR InstName V3
SYMATTR Value AC 1
SYMBOL res -112 320 R90
WINDOW 0 0 56 VBottom 2
WINDOW 3 32 56 VTop 2
SYMATTR InstName R7
SYMATTR Value 51.
SYMBOL res -240 320 R90
WINDOW 0 0 56 VBottom 2
WINDOW 3 32 56 VTop 2
SYMATTR InstName R9
SYMATTR Value 1
SYMBOL cap -112 336 R0
SYMATTR InstName C5
SYMATTR Value 22µ
SYMBOL res 0 336 R0
SYMATTR InstName R10
SYMATTR Value 500
TEXT -32 288 Left 2 !.ac dec 100 1 1000000
